New Line.Other_Feeders phases=3 Bus1=SubXfmr_LSB.1.2.3 Bus2=Feeders.1.2.3 R1=0.00000001 X1=0.000000001 R0=0.00000001 X0=0.00000001

New Load.Other_Feeders phases=3 Bus1=Feeders kV=34.5 xfkVA=23496.8 Allocationfactor=1 pf=0.992 conn=wye model=1 yearly=Other_Bus_Load