New Loadshape.default Npts=24 Interval=1 mult=[sngfile=default_P.sng]
