New line.G2000RN2800_N274196_sec_1 bus1=G2000RN2800_N274196_sec.3 bus2=G2000RN2800_N274196_sec_1.3 linecode=Sweetbriar phases=1 length=200 units=ft
New line.G2000RN2800_N274196_sec_2 bus1=G2000RN2800_N274196_sec.3 bus2=G2000RN2800_N274196_sec_2.3 linecode=Sweetbriar phases=1 length=200 units=ft
New line.G2000RN2800_N274196_sec_3 bus1=G2000RN2800_N274196_sec.3 bus2=G2000RN2800_N274196_sec_3.3 linecode=Sweetbriar phases=1 length=200 units=ft
New line.G2000RN2800_N274196_sec_4 bus1=G2000RN2800_N274196_sec.3 bus2=G2000RN2800_N274196_sec_4.3 linecode=Sweetbriar phases=1 length=200 units=ft
New line.G2000RO4500_N274220_sec_1 bus1=G2000RO4500_N274220_sec.3 bus2=G2000RO4500_N274220_sec_1.3 linecode=Sweetbriar phases=1 length=200 units=ft
New line.G2000RO4500_N274220_sec_2 bus1=G2000RO4500_N274220_sec.3 bus2=G2000RO4500_N274220_sec_2.3 linecode=Sweetbriar phases=1 length=200 units=ft
New line.G2000RO4500_N274220_sec_3 bus1=G2000RO4500_N274220_sec.3 bus2=G2000RO4500_N274220_sec_3.3 linecode=Sweetbriar phases=1 length=200 units=ft
New line.G2000SK5500_N274137_sec_1 bus1=G2000SK5500_N274137_sec.2 bus2=G2000SK5500_N274137_sec_1.2 linecode=Sweetbriar phases=1 length=200 units=ft
New line.G2000SK5500_N274137_sec_2 bus1=G2000SK5500_N274137_sec.2 bus2=G2000SK5500_N274137_sec_2.2 linecode=Sweetbriar phases=1 length=200 units=ft
New line.G2000SK5500_N274137_sec_3 bus1=G2000SK5500_N274137_sec.2 bus2=G2000SK5500_N274137_sec_3.2 linecode=Sweetbriar phases=1 length=200 units=ft
New line.G2000SK5500_N274137_sec_4 bus1=G2000SK5500_N274137_sec.2 bus2=G2000SK5500_N274137_sec_4.2 linecode=Sweetbriar phases=1 length=200 units=ft
New line.G2000SK5500_N274137_sec_5 bus1=G2000SK5500_N274137_sec.2 bus2=G2000SK5500_N274137_sec_5.2 linecode=Sweetbriar phases=1 length=200 units=ft
New line.G2000SK5500_N274137_sec_6 bus1=G2000SK5500_N274137_sec.2 bus2=G2000SK5500_N274137_sec_6.2 linecode=Sweetbriar phases=1 length=200 units=ft
New line.G2000SK5500_N274137_sec_7 bus1=G2000SK5500_N274137_sec.2 bus2=G2000SK5500_N274137_sec_7.2 linecode=Sweetbriar phases=1 length=200 units=ft
New line.G2000SK5500_N274137_sec_8 bus1=G2000SK5500_N274137_sec.2 bus2=G2000SK5500_N274137_sec_8.2 linecode=Sweetbriar phases=1 length=200 units=ft
New line.G2000SK7800_N274150_sec_1 bus1=G2000SK7800_N274150_sec.2 bus2=G2000SK7800_N274150_sec_1.2 linecode=Sweetbriar phases=1 length=200 units=ft
New line.G2000SK7800_N274150_sec_2 bus1=G2000SK7800_N274150_sec.2 bus2=G2000SK7800_N274150_sec_2.2 linecode=Sweetbriar phases=1 length=200 units=ft
New line.G2000SK7800_N274150_sec_3 bus1=G2000SK7800_N274150_sec.2 bus2=G2000SK7800_N274150_sec_3.2 linecode=Sweetbriar phases=1 length=200 units=ft
New line.G2000SK7800_N274150_sec_4 bus1=G2000SK7800_N274150_sec.2 bus2=G2000SK7800_N274150_sec_4.2 linecode=Sweetbriar phases=1 length=200 units=ft
New line.G2000SK7800_N274150_sec_5 bus1=G2000SK7800_N274150_sec.2 bus2=G2000SK7800_N274150_sec_5.2 linecode=Sweetbriar phases=1 length=200 units=ft
New line.G2000SN2500_N274191_sec_1 bus1=G2000SN2500_N274191_sec.3 bus2=G2000SN2500_N274191_sec_1.3 linecode=Sweetbriar phases=1 length=200 units=ft
New line.G2000SN2500_N274191_sec_2 bus1=G2000SN2500_N274191_sec.3 bus2=G2000SN2500_N274191_sec_2.3 linecode=Sweetbriar phases=1 length=200 units=ft
New line.G2000SN2500_N274191_sec_3 bus1=G2000SN2500_N274191_sec.3 bus2=G2000SN2500_N274191_sec_3.3 linecode=Sweetbriar phases=1 length=200 units=ft
New line.G2000SN2500_N274191_sec_4 bus1=G2000SN2500_N274191_sec.3 bus2=G2000SN2500_N274191_sec_4.3 linecode=Sweetbriar phases=1 length=200 units=ft
New line.G2000SN2500_N274191_sec_5 bus1=G2000SN2500_N274191_sec.3 bus2=G2000SN2500_N274191_sec_5.3 linecode=Sweetbriar phases=1 length=200 units=ft
New line.G2000SN8400_N274183_sec_1 bus1=G2000SN8400_N274183_sec.3 bus2=G2000SN8400_N274183_sec_1.3 linecode=Sweetbriar phases=1 length=200 units=ft
New line.G2000SN8400_N274183_sec_2 bus1=G2000SN8400_N274183_sec.3 bus2=G2000SN8400_N274183_sec_2.3 linecode=Sweetbriar phases=1 length=200 units=ft
New line.G2000SN8800_N274200_sec_1 bus1=G2000SN8800_N274200_sec.3 bus2=G2000SN8800_N274200_sec_1.3 linecode=Sweetbriar phases=1 length=200 units=ft
New line.G2000SN8800_N274200_sec_2 bus1=G2000SN8800_N274200_sec.3 bus2=G2000SN8800_N274200_sec_2.3 linecode=Sweetbriar phases=1 length=200 units=ft
New line.G2000SN8800_N274200_sec_3 bus1=G2000SN8800_N274200_sec.3 bus2=G2000SN8800_N274200_sec_3.3 linecode=Sweetbriar phases=1 length=200 units=ft
New line.G2000SO1800_N274227_sec_1 bus1=G2000SO1800_N274227_sec.3 bus2=G2000SO1800_N274227_sec_1.3 linecode=Sweetbriar phases=1 length=200 units=ft
New line.G2000SO1800_N274227_sec_2 bus1=G2000SO1800_N274227_sec.3 bus2=G2000SO1800_N274227_sec_2.3 linecode=Sweetbriar phases=1 length=200 units=ft
New line.G2000SO1800_N274227_sec_3 bus1=G2000SO1800_N274227_sec.3 bus2=G2000SO1800_N274227_sec_3.3 linecode=Sweetbriar phases=1 length=200 units=ft
New line.G2000SO1800_N274227_sec_4 bus1=G2000SO1800_N274227_sec.3 bus2=G2000SO1800_N274227_sec_4.3 linecode=Sweetbriar phases=1 length=200 units=ft
New line.G2000SO2200_N274207_sec_1 bus1=G2000SO2200_N274207_sec.3 bus2=G2000SO2200_N274207_sec_1.3 linecode=Sweetbriar phases=1 length=200 units=ft
New line.G2000SO2200_N274207_sec_2 bus1=G2000SO2200_N274207_sec.3 bus2=G2000SO2200_N274207_sec_2.3 linecode=Sweetbriar phases=1 length=200 units=ft
New line.G2000SO2200_N274207_sec_3 bus1=G2000SO2200_N274207_sec.3 bus2=G2000SO2200_N274207_sec_3.3 linecode=Sweetbriar phases=1 length=200 units=ft
New line.G2000SO2200_N274207_sec_4 bus1=G2000SO2200_N274207_sec.3 bus2=G2000SO2200_N274207_sec_4.3 linecode=Sweetbriar phases=1 length=200 units=ft
New line.G2000SO2200_N274207_sec_5 bus1=G2000SO2200_N274207_sec.3 bus2=G2000SO2200_N274207_sec_5.3 linecode=Sweetbriar phases=1 length=200 units=ft
New line.G2000SO9400_N274214_sec_1 bus1=G2000SO9400_N274214_sec.3 bus2=G2000SO9400_N274214_sec_1.3 linecode=Sweetbriar phases=1 length=200 units=ft
New line.G2000SO9400_N274214_sec_2 bus1=G2000SO9400_N274214_sec.3 bus2=G2000SO9400_N274214_sec_2.3 linecode=Sweetbriar phases=1 length=200 units=ft
New line.G2000SO9400_N274214_sec_3 bus1=G2000SO9400_N274214_sec.3 bus2=G2000SO9400_N274214_sec_3.3 linecode=Sweetbriar phases=1 length=200 units=ft
New line.G2000SO9800_N274224_sec_1 bus1=G2000SO9800_N274224_sec.3 bus2=G2000SO9800_N274224_sec_1.3 linecode=Sweetbriar phases=1 length=200 units=ft
New line.G2000SO9800_N274224_sec_2 bus1=G2000SO9800_N274224_sec.3 bus2=G2000SO9800_N274224_sec_2.3 linecode=Sweetbriar phases=1 length=200 units=ft
New line.G2000SO9800_N274224_sec_3 bus1=G2000SO9800_N274224_sec.3 bus2=G2000SO9800_N274224_sec_3.3 linecode=Sweetbriar phases=1 length=200 units=ft
New line.G2000SO9800_N274224_sec_4 bus1=G2000SO9800_N274224_sec.3 bus2=G2000SO9800_N274224_sec_4.3 linecode=Sweetbriar phases=1 length=200 units=ft
New line.G2000TJ2700_N274103_sec_1 bus1=G2000TJ2700_N274103_sec.3 bus2=G2000TJ2700_N274103_sec_1.3 linecode=Sweetbriar phases=1 length=200 units=ft
New line.G2000TJ2700_N274103_sec_2 bus1=G2000TJ2700_N274103_sec.3 bus2=G2000TJ2700_N274103_sec_2.3 linecode=Sweetbriar phases=1 length=200 units=ft
New line.G2000TJ2700_N274103_sec_3 bus1=G2000TJ2700_N274103_sec.3 bus2=G2000TJ2700_N274103_sec_3.3 linecode=Sweetbriar phases=1 length=200 units=ft
New line.G2000TJ2700_N274103_sec_4 bus1=G2000TJ2700_N274103_sec.3 bus2=G2000TJ2700_N274103_sec_4.3 linecode=Sweetbriar phases=1 length=200 units=ft
New line.G2000TL1200_N283789_sec_1 bus1=G2000TL1200_N283789_sec.2 bus2=G2000TL1200_N283789_sec_1.2 linecode=Sweetbriar phases=1 length=200 units=ft
New line.G2000TL1200_N283789_sec_2 bus1=G2000TL1200_N283789_sec.2 bus2=G2000TL1200_N283789_sec_2.2 linecode=Sweetbriar phases=1 length=200 units=ft
New line.G2000TL1200_N283789_sec_3 bus1=G2000TL1200_N283789_sec.2 bus2=G2000TL1200_N283789_sec_3.2 linecode=Sweetbriar phases=1 length=200 units=ft
New line.G2000TL1200_N283789_sec_4 bus1=G2000TL1200_N283789_sec.2 bus2=G2000TL1200_N283789_sec_4.2 linecode=Sweetbriar phases=1 length=200 units=ft
New line.G2000TL1200_N283789_sec_5 bus1=G2000TL1200_N283789_sec.2 bus2=G2000TL1200_N283789_sec_5.2 linecode=Sweetbriar phases=1 length=200 units=ft
New line.G2000TL1200_N283789_sec_6 bus1=G2000TL1200_N283789_sec.2 bus2=G2000TL1200_N283789_sec_6.2 linecode=Sweetbriar phases=1 length=200 units=ft
New line.G2000TL5600_N283806_sec_1 bus1=G2000TL5600_N283806_sec.2 bus2=G2000TL5600_N283806_sec_1.2 linecode=Sweetbriar phases=1 length=200 units=ft
New line.G2000TL5600_N283806_sec_2 bus1=G2000TL5600_N283806_sec.2 bus2=G2000TL5600_N283806_sec_2.2 linecode=Sweetbriar phases=1 length=200 units=ft
New line.G2000TL5600_N283806_sec_3 bus1=G2000TL5600_N283806_sec.2 bus2=G2000TL5600_N283806_sec_3.2 linecode=Sweetbriar phases=1 length=200 units=ft
New line.G2000TL5600_N283806_sec_4 bus1=G2000TL5600_N283806_sec.2 bus2=G2000TL5600_N283806_sec_4.2 linecode=Sweetbriar phases=1 length=200 units=ft
New line.G2000TN4400_N283873_sec_1 bus1=G2000TN4400_N283873_sec.3 bus2=G2000TN4400_N283873_sec_1.3 linecode=Sweetbriar phases=1 length=200 units=ft
New line.G2000TN4400_N283873_sec_2 bus1=G2000TN4400_N283873_sec.3 bus2=G2000TN4400_N283873_sec_2.3 linecode=Sweetbriar phases=1 length=200 units=ft
New line.G2000TN4400_N283873_sec_3 bus1=G2000TN4400_N283873_sec.3 bus2=G2000TN4400_N283873_sec_3.3 linecode=Sweetbriar phases=1 length=200 units=ft
New line.G2000TN4400_N283873_sec_4 bus1=G2000TN4400_N283873_sec.3 bus2=G2000TN4400_N283873_sec_4.3 linecode=Sweetbriar phases=1 length=200 units=ft
New line.G2000TN4400_N283873_sec_5 bus1=G2000TN4400_N283873_sec.3 bus2=G2000TN4400_N283873_sec_5.3 linecode=Sweetbriar phases=1 length=200 units=ft
New line.G2000UH9400_N283633_sec_1 bus1=G2000UH9400_N283633_sec.3 bus2=G2000UH9400_N283633_sec_1.3 linecode=Sweetbriar phases=1 length=200 units=ft
New line.G2000UH9400_N283633_sec_2 bus1=G2000UH9400_N283633_sec.3 bus2=G2000UH9400_N283633_sec_2.3 linecode=Sweetbriar phases=1 length=200 units=ft
New line.G2000UH9400_N283633_sec_3 bus1=G2000UH9400_N283633_sec.3 bus2=G2000UH9400_N283633_sec_3.3 linecode=Sweetbriar phases=1 length=200 units=ft
New line.G2000UH9800_N283647_sec_1 bus1=G2000UH9800_N283647_sec.3 bus2=G2000UH9800_N283647_sec_1.3 linecode=Sweetbriar phases=1 length=200 units=ft
New line.G2000UH9800_N283647_sec_2 bus1=G2000UH9800_N283647_sec.3 bus2=G2000UH9800_N283647_sec_2.3 linecode=Sweetbriar phases=1 length=200 units=ft
New line.G2000UI3100_N283702_sec_1 bus1=G2000UI3100_N283702_sec.3 bus2=G2000UI3100_N283702_sec_1.3 linecode=Sweetbriar phases=1 length=200 units=ft
New line.G2000UI3100_N283702_sec_2 bus1=G2000UI3100_N283702_sec.3 bus2=G2000UI3100_N283702_sec_2.3 linecode=Sweetbriar phases=1 length=200 units=ft
New line.G2000UI3100_N283702_sec_3 bus1=G2000UI3100_N283702_sec.3 bus2=G2000UI3100_N283702_sec_3.3 linecode=Sweetbriar phases=1 length=200 units=ft
New line.G2000UI3100_N283702_sec_4 bus1=G2000UI3100_N283702_sec.3 bus2=G2000UI3100_N283702_sec_4.3 linecode=Sweetbriar phases=1 length=200 units=ft
New line.G2000UI5400_N283699_sec_1 bus1=G2000UI5400_N283699_sec.3 bus2=G2000UI5400_N283699_sec_1.3 linecode=Sweetbriar phases=1 length=200 units=ft
New line.G2000UI5400_N283699_sec_2 bus1=G2000UI5400_N283699_sec.3 bus2=G2000UI5400_N283699_sec_2.3 linecode=Sweetbriar phases=1 length=200 units=ft
New line.G2000UI5400_N283699_sec_3 bus1=G2000UI5400_N283699_sec.3 bus2=G2000UI5400_N283699_sec_3.3 linecode=Sweetbriar phases=1 length=200 units=ft
New line.G2000UI5400_N283699_sec_4 bus1=G2000UI5400_N283699_sec.3 bus2=G2000UI5400_N283699_sec_4.3 linecode=Sweetbriar phases=1 length=200 units=ft
New line.G2000UI5400_N283699_sec_5 bus1=G2000UI5400_N283699_sec.3 bus2=G2000UI5400_N283699_sec_5.3 linecode=Sweetbriar phases=1 length=200 units=ft
New line.G2000UI5400_N283699_sec_6 bus1=G2000UI5400_N283699_sec.3 bus2=G2000UI5400_N283699_sec_6.3 linecode=Sweetbriar phases=1 length=200 units=ft
New line.G2000UI6400_N283679_sec_1 bus1=G2000UI6400_N283679_sec.3 bus2=G2000UI6400_N283679_sec_1.3 linecode=Sweetbriar phases=1 length=200 units=ft
New line.G2000UI6400_N283679_sec_2 bus1=G2000UI6400_N283679_sec.3 bus2=G2000UI6400_N283679_sec_2.3 linecode=Sweetbriar phases=1 length=200 units=ft
New line.G2000UI6400_N283679_sec_3 bus1=G2000UI6400_N283679_sec.3 bus2=G2000UI6400_N283679_sec_3.3 linecode=Sweetbriar phases=1 length=200 units=ft
New line.G2000UI6400_N283679_sec_4 bus1=G2000UI6400_N283679_sec.3 bus2=G2000UI6400_N283679_sec_4.3 linecode=Sweetbriar phases=1 length=200 units=ft
New line.G2000UJ0800_N283722_sec_1 bus1=G2000UJ0800_N283722_sec.3 bus2=G2000UJ0800_N283722_sec_1.3 linecode=Sweetbriar phases=1 length=200 units=ft
New line.G2000UJ0800_N283722_sec_2 bus1=G2000UJ0800_N283722_sec.3 bus2=G2000UJ0800_N283722_sec_2.3 linecode=Sweetbriar phases=1 length=200 units=ft
New line.G2000UJ0800_N283722_sec_3 bus1=G2000UJ0800_N283722_sec.3 bus2=G2000UJ0800_N283722_sec_3.3 linecode=Sweetbriar phases=1 length=200 units=ft
New line.G2000UJ3600_N283731_sec_1 bus1=G2000UJ3600_N283731_sec.2 bus2=G2000UJ3600_N283731_sec_1.2 linecode=Sweetbriar phases=1 length=200 units=ft
New line.G2000UJ3600_N283731_sec_2 bus1=G2000UJ3600_N283731_sec.2 bus2=G2000UJ3600_N283731_sec_2.2 linecode=Sweetbriar phases=1 length=200 units=ft
New line.G2000UJ3600_N283731_sec_3 bus1=G2000UJ3600_N283731_sec.2 bus2=G2000UJ3600_N283731_sec_3.2 linecode=Sweetbriar phases=1 length=200 units=ft
New line.G2000UJ3600_N283731_sec_4 bus1=G2000UJ3600_N283731_sec.2 bus2=G2000UJ3600_N283731_sec_4.2 linecode=Sweetbriar phases=1 length=200 units=ft
New line.G2000UJ3600_N283731_sec_5 bus1=G2000UJ3600_N283731_sec.2 bus2=G2000UJ3600_N283731_sec_5.2 linecode=Sweetbriar phases=1 length=200 units=ft
New line.G2000UJ3600_N283731_sec_6 bus1=G2000UJ3600_N283731_sec.2 bus2=G2000UJ3600_N283731_sec_6.2 linecode=Sweetbriar phases=1 length=200 units=ft
New line.G2000UJ6500_N283747_sec_1 bus1=G2000UJ6500_N283747_sec.2 bus2=G2000UJ6500_N283747_sec_1.2 linecode=Sweetbriar phases=1 length=200 units=ft
New line.G2000UJ6500_N283747_sec_2 bus1=G2000UJ6500_N283747_sec.2 bus2=G2000UJ6500_N283747_sec_2.2 linecode=Sweetbriar phases=1 length=200 units=ft
New line.G2000UJ6500_N283747_sec_3 bus1=G2000UJ6500_N283747_sec.2 bus2=G2000UJ6500_N283747_sec_3.2 linecode=Sweetbriar phases=1 length=200 units=ft
New line.G2000UJ6500_N283747_sec_4 bus1=G2000UJ6500_N283747_sec.2 bus2=G2000UJ6500_N283747_sec_4.2 linecode=Sweetbriar phases=1 length=200 units=ft
New line.G2000UJ6500_N283747_sec_5 bus1=G2000UJ6500_N283747_sec.2 bus2=G2000UJ6500_N283747_sec_5.2 linecode=Sweetbriar phases=1 length=200 units=ft
New line.G2000UJ6500_N283747_sec_6 bus1=G2000UJ6500_N283747_sec.2 bus2=G2000UJ6500_N283747_sec_6.2 linecode=Sweetbriar phases=1 length=200 units=ft
New line.G2000UJ6500_N283747_sec_7 bus1=G2000UJ6500_N283747_sec.2 bus2=G2000UJ6500_N283747_sec_7.2 linecode=Sweetbriar phases=1 length=200 units=ft
New line.G2000UK1100_N283753_sec_1 bus1=G2000UK1100_N283753_sec.3 bus2=G2000UK1100_N283753_sec_1.3 linecode=Sweetbriar phases=1 length=200 units=ft
New line.G2000UK1100_N283753_sec_2 bus1=G2000UK1100_N283753_sec.3 bus2=G2000UK1100_N283753_sec_2.3 linecode=Sweetbriar phases=1 length=200 units=ft
New line.G2000UK1100_N283753_sec_3 bus1=G2000UK1100_N283753_sec.3 bus2=G2000UK1100_N283753_sec_3.3 linecode=Sweetbriar phases=1 length=200 units=ft
New line.G2000UK1100_N283753_sec_4 bus1=G2000UK1100_N283753_sec.3 bus2=G2000UK1100_N283753_sec_4.3 linecode=Sweetbriar phases=1 length=200 units=ft
New line.G2000UK1100_N283753_sec_5 bus1=G2000UK1100_N283753_sec.3 bus2=G2000UK1100_N283753_sec_5.3 linecode=Sweetbriar phases=1 length=200 units=ft
New line.G2000UL1900_N283810_sec_1 bus1=G2000UL1900_N283810_sec.2 bus2=G2000UL1900_N283810_sec_1.2 linecode=Sweetbriar phases=1 length=200 units=ft
New line.G2000UL1900_N283810_sec_2 bus1=G2000UL1900_N283810_sec.2 bus2=G2000UL1900_N283810_sec_2.2 linecode=Sweetbriar phases=1 length=200 units=ft
New line.G2000UL3200_N283772_sec_1 bus1=G2000UL3200_N283772_sec.2 bus2=G2000UL3200_N283772_sec_1.2 linecode=Sweetbriar phases=1 length=200 units=ft
New line.G2000UL3200_N283772_sec_2 bus1=G2000UL3200_N283772_sec.2 bus2=G2000UL3200_N283772_sec_2.2 linecode=Sweetbriar phases=1 length=200 units=ft
New line.G2000UL3200_N283772_sec_3 bus1=G2000UL3200_N283772_sec.2 bus2=G2000UL3200_N283772_sec_3.2 linecode=Sweetbriar phases=1 length=200 units=ft
New line.G2000UL3200_N283772_sec_4 bus1=G2000UL3200_N283772_sec.2 bus2=G2000UL3200_N283772_sec_4.2 linecode=Sweetbriar phases=1 length=200 units=ft
New line.G2000UL3200_N283772_sec_5 bus1=G2000UL3200_N283772_sec.2 bus2=G2000UL3200_N283772_sec_5.2 linecode=Sweetbriar phases=1 length=200 units=ft
New line.G2000UL3200_N283772_sec_6 bus1=G2000UL3200_N283772_sec.2 bus2=G2000UL3200_N283772_sec_6.2 linecode=Sweetbriar phases=1 length=200 units=ft
New line.G2000UL3200_N283772_sec_7 bus1=G2000UL3200_N283772_sec.2 bus2=G2000UL3200_N283772_sec_7.2 linecode=Sweetbriar phases=1 length=200 units=ft
New line.G2000UL7700_N283791_sec_1 bus1=G2000UL7700_N283791_sec.2 bus2=G2000UL7700_N283791_sec_1.2 linecode=2/0_2/0 phases=1 length=200 units=ft
New line.G2000UL7700_N283791_sec_2 bus1=G2000UL7700_N283791_sec.2 bus2=G2000UL7700_N283791_sec_2.2 linecode=2/0_2/0 phases=1 length=200 units=ft
New line.G2000UM7300_N283821_sec_1 bus1=G2000UM7300_N283821_sec.2 bus2=G2000UM7300_N283821_sec_1.2 linecode=2/0_2/0 phases=1 length=200 units=ft
New line.G2000UM7300_N283821_sec_2 bus1=G2000UM7300_N283821_sec.2 bus2=G2000UM7300_N283821_sec_2.2 linecode=2/0_2/0 phases=1 length=200 units=ft
New line.G2000UO1100_N283873_sec_1 bus1=G2000UO1100_N283873_sec.3 bus2=G2000UO1100_N283873_sec_1.3 linecode=Sweetbriar phases=1 length=200 units=ft
New line.G2000UO1100_N283873_sec_2 bus1=G2000UO1100_N283873_sec.3 bus2=G2000UO1100_N283873_sec_2.3 linecode=Sweetbriar phases=1 length=200 units=ft
New line.G2000UO1100_N283873_sec_3 bus1=G2000UO1100_N283873_sec.3 bus2=G2000UO1100_N283873_sec_3.3 linecode=Sweetbriar phases=1 length=200 units=ft
New line.G2000UO1100_N283873_sec_4 bus1=G2000UO1100_N283873_sec.3 bus2=G2000UO1100_N283873_sec_4.3 linecode=Sweetbriar phases=1 length=200 units=ft
New line.G2000VH9100_N283615_sec_1 bus1=G2000VH9100_N283615_sec.3 bus2=G2000VH9100_N283615_sec_1.3 linecode=2/0_2/0 phases=1 length=200 units=ft
New line.G2000VH9100_N283615_sec_2 bus1=G2000VH9100_N283615_sec.3 bus2=G2000VH9100_N283615_sec_2.3 linecode=2/0_2/0 phases=1 length=150 units=ft
New line.G2000VH9500_N283675_sec_1 bus1=G2000VH9500_N283675_sec.2 bus2=G2000VH9500_N283675_sec_1.2 linecode=Sweetbriar phases=1 length=200 units=ft
New line.G2000VH9500_N283675_sec_2 bus1=G2000VH9500_N283675_sec.2 bus2=G2000VH9500_N283675_sec_2.2 linecode=Sweetbriar phases=1 length=200 units=ft
New line.G2000VH9500_N283675_sec_3 bus1=G2000VH9500_N283675_sec.2 bus2=G2000VH9500_N283675_sec_3.2 linecode=Sweetbriar phases=1 length=200 units=ft
New line.G2000VH9500_N283675_sec_4 bus1=G2000VH9500_N283675_sec.2 bus2=G2000VH9500_N283675_sec_4.2 linecode=Sweetbriar phases=1 length=200 units=ft
New line.G2000VH9500_N283675_sec_5 bus1=G2000VH9500_N283675_sec.2 bus2=G2000VH9500_N283675_sec_5.2 linecode=Sweetbriar phases=1 length=200 units=ft
New line.G2000VH9500_N283675_sec_6 bus1=G2000VH9500_N283675_sec.2 bus2=G2000VH9500_N283675_sec_6.2 linecode=Sweetbriar phases=1 length=200 units=ft
New line.G2000VH9500_N283675_sec_7 bus1=G2000VH9500_N283675_sec.2 bus2=G2000VH9500_N283675_sec_7.2 linecode=Sweetbriar phases=1 length=200 units=ft
New line.G2000VH9500_N283675_sec_8 bus1=G2000VH9500_N283675_sec.2 bus2=G2000VH9500_N283675_sec_8.2 linecode=Sweetbriar phases=1 length=200 units=ft
New line.G2000VH9500_N283675_sec_9 bus1=G2000VH9500_N283675_sec.2 bus2=G2000VH9500_N283675_sec_9.2 linecode=Sweetbriar phases=1 length=200 units=ft
New line.G2000VH9500_N283675_sec_10 bus1=G2000VH9500_N283675_sec.2 bus2=G2000VH9500_N283675_sec_10.2 linecode=Sweetbriar phases=1 length=200 units=ft
New line.G2000VH9500_N283675_sec_11 bus1=G2000VH9500_N283675_sec.2 bus2=G2000VH9500_N283675_sec_11.2 linecode=Sweetbriar phases=1 length=200 units=ft
New line.G2000VH9500_N283675_sec_12 bus1=G2000VH9500_N283675_sec.2 bus2=G2000VH9500_N283675_sec_12.2 linecode=Sweetbriar phases=1 length=200 units=ft
New line.G2000VH9500_N283675_sec_13 bus1=G2000VH9500_N283675_sec.2 bus2=G2000VH9500_N283675_sec_13.2 linecode=Sweetbriar phases=1 length=200 units=ft
New line.G2000VH9500_N283675_sec_14 bus1=G2000VH9500_N283675_sec.2 bus2=G2000VH9500_N283675_sec_14.2 linecode=Sweetbriar phases=1 length=200 units=ft
New line.G2000VI6200_N283684_sec_1 bus1=G2000VI6200_N283684_sec.2 bus2=G2000VI6200_N283684_sec_1.2 linecode=Sweetbriar phases=1 length=200 units=ft
New line.G2000VI6200_N283684_sec_2 bus1=G2000VI6200_N283684_sec.2 bus2=G2000VI6200_N283684_sec_2.2 linecode=Sweetbriar phases=1 length=200 units=ft
New line.G2000VI6200_N283684_sec_3 bus1=G2000VI6200_N283684_sec.2 bus2=G2000VI6200_N283684_sec_3.2 linecode=Sweetbriar phases=1 length=200 units=ft
New line.G2000VI6200_N283684_sec_4 bus1=G2000VI6200_N283684_sec.2 bus2=G2000VI6200_N283684_sec_4.2 linecode=Sweetbriar phases=1 length=200 units=ft
New line.G2000VI6200_N283684_sec_5 bus1=G2000VI6200_N283684_sec.2 bus2=G2000VI6200_N283684_sec_5.2 linecode=Sweetbriar phases=1 length=200 units=ft
New line.G2000VI6200_N283684_sec_6 bus1=G2000VI6200_N283684_sec.2 bus2=G2000VI6200_N283684_sec_6.2 linecode=Sweetbriar phases=1 length=200 units=ft
New line.G2000VI6200_N283684_sec_7 bus1=G2000VI6200_N283684_sec.2 bus2=G2000VI6200_N283684_sec_7.2 linecode=Sweetbriar phases=1 length=200 units=ft
New line.G2000VI6200_N283684_sec_8 bus1=G2000VI6200_N283684_sec.2 bus2=G2000VI6200_N283684_sec_8.2 linecode=Sweetbriar phases=1 length=200 units=ft
New line.G2000VI6200_N283684_sec_9 bus1=G2000VI6200_N283684_sec.2 bus2=G2000VI6200_N283684_sec_9.2 linecode=Sweetbriar phases=1 length=200 units=ft
New line.G2000VI6200_N283684_sec_10 bus1=G2000VI6200_N283684_sec.2 bus2=G2000VI6200_N283684_sec_10.2 linecode=Sweetbriar phases=1 length=200 units=ft
New line.G2000VI6200_N283684_sec_11 bus1=G2000VI6200_N283684_sec.2 bus2=G2000VI6200_N283684_sec_11.2 linecode=Sweetbriar phases=1 length=200 units=ft
New line.G2000VI6200_N283684_sec_12 bus1=G2000VI6200_N283684_sec.2 bus2=G2000VI6200_N283684_sec_12.2 linecode=Sweetbriar phases=1 length=200 units=ft
New line.G2000VI6200_N283684_sec_13 bus1=G2000VI6200_N283684_sec.2 bus2=G2000VI6200_N283684_sec_13.2 linecode=Sweetbriar phases=1 length=200 units=ft
New line.G2000VJ0200_N283716_sec_1 bus1=G2000VJ0200_N283716_sec.2 bus2=G2000VJ0200_N283716_sec_1.2 linecode=Sweetbriar phases=1 length=200 units=ft
New line.G2000VJ0200_N283716_sec_2 bus1=G2000VJ0200_N283716_sec.2 bus2=G2000VJ0200_N283716_sec_2.2 linecode=Sweetbriar phases=1 length=200 units=ft
New line.G2000VJ0200_N283716_sec_3 bus1=G2000VJ0200_N283716_sec.2 bus2=G2000VJ0200_N283716_sec_3.2 linecode=Sweetbriar phases=1 length=200 units=ft
New line.G2000VJ0200_N283716_sec_4 bus1=G2000VJ0200_N283716_sec.2 bus2=G2000VJ0200_N283716_sec_4.2 linecode=Sweetbriar phases=1 length=200 units=ft
New line.G2000VJ0200_N283716_sec_5 bus1=G2000VJ0200_N283716_sec.2 bus2=G2000VJ0200_N283716_sec_5.2 linecode=Sweetbriar phases=1 length=200 units=ft
New line.G2000VJ0200_N283716_sec_6 bus1=G2000VJ0200_N283716_sec.2 bus2=G2000VJ0200_N283716_sec_6.2 linecode=Sweetbriar phases=1 length=200 units=ft
New line.G2000VJ0200_N283716_sec_7 bus1=G2000VJ0200_N283716_sec.2 bus2=G2000VJ0200_N283716_sec_7.2 linecode=Sweetbriar phases=1 length=200 units=ft
New line.G2000VL8700_N283799_sec_1 bus1=G2000VL8700_N283799_sec.3 bus2=G2000VL8700_N283799_sec_1.3 linecode=2/0_2/0 phases=1 length=200 units=ft
New line.G2000VL8700_N283799_sec_2 bus1=G2000VL8700_N283799_sec.3 bus2=G2000VL8700_N283799_sec_2.3 linecode=2/0_2/0 phases=1 length=200 units=ft
New line.G2000VL8700_N283799_sec_3 bus1=G2000VL8700_N283799_sec.3 bus2=G2000VL8700_N283799_sec_3.3 linecode=2/0_2/0 phases=1 length=200 units=ft
New line.G2000VM1500_N283827_sec_1 bus1=G2000VM1500_N283827_sec.2 bus2=G2000VM1500_N283827_sec_1.2 linecode=2/0_2/0 phases=1 length=200 units=ft
New line.G2000VM1500_N283827_sec_2 bus1=G2000VM1500_N283827_sec.2 bus2=G2000VM1500_N283827_sec_2.2 linecode=2/0_2/0 phases=1 length=200 units=ft
New line.G2000VM6800_N283833_sec_1 bus1=G2000VM6800_N283833_sec.2 bus2=G2000VM6800_N283833_sec_1.2 linecode=2/0_2/0 phases=1 length=200 units=ft
New line.G2000VM6800_N283833_sec_2 bus1=G2000VM6800_N283833_sec.2 bus2=G2000VM6800_N283833_sec_2.2 linecode=2/0_2/0 phases=1 length=200 units=ft
New line.G2000VO8200_N1309805_sec_1 bus1=G2000VO8200_N1309805_sec.3 bus2=G2000VO8200_N1309805_sec_1.3 linecode=Sweetbriar phases=1 length=200 units=ft
New line.G2000WH5900_N283675_sec_1 bus1=G2000WH5900_N283675_sec.2 bus2=G2000WH5900_N283675_sec_1.2 linecode=Sweetbriar phases=1 length=200 units=ft
New line.G2000WH5900_N283675_sec_2 bus1=G2000WH5900_N283675_sec.2 bus2=G2000WH5900_N283675_sec_2.2 linecode=Sweetbriar phases=1 length=200 units=ft
New line.G2000WI4400_N283710_sec_1 bus1=G2000WI4400_N283710_sec.2 bus2=G2000WI4400_N283710_sec_1.2 linecode=Sweetbriar phases=1 length=200 units=ft
New line.G2000WI4400_N283710_sec_2 bus1=G2000WI4400_N283710_sec.2 bus2=G2000WI4400_N283710_sec_2.2 linecode=Sweetbriar phases=1 length=200 units=ft
New line.G2000WI4400_N283710_sec_3 bus1=G2000WI4400_N283710_sec.2 bus2=G2000WI4400_N283710_sec_3.2 linecode=Sweetbriar phases=1 length=200 units=ft
New line.G2000WI4400_N283710_sec_4 bus1=G2000WI4400_N283710_sec.2 bus2=G2000WI4400_N283710_sec_4.2 linecode=Sweetbriar phases=1 length=200 units=ft
New line.G2000WI4400_N283710_sec_5 bus1=G2000WI4400_N283710_sec.2 bus2=G2000WI4400_N283710_sec_5.2 linecode=Sweetbriar phases=1 length=200 units=ft
New line.G2000WI4400_N283710_sec_6 bus1=G2000WI4400_N283710_sec.2 bus2=G2000WI4400_N283710_sec_6.2 linecode=Sweetbriar phases=1 length=200 units=ft
New line.G2000WI4400_N283710_sec_7 bus1=G2000WI4400_N283710_sec.2 bus2=G2000WI4400_N283710_sec_7.2 linecode=Sweetbriar phases=1 length=200 units=ft
New line.G2000WK0800_N283765_sec_1 bus1=G2000WK0800_N283765_sec.2 bus2=G2000WK0800_N283765_sec_1.2 linecode=2/0_2/0 phases=1 length=200 units=ft
New line.G2000WK8200_N283746_sec_1 bus1=G2000WK8200_N283746_sec.2 bus2=G2000WK8200_N283746_sec_1.2 linecode=2/0_2/0 phases=1 length=200 units=ft
New line.G2000WL3500_N283799_sec_1 bus1=G2000WL3500_N283799_sec.3 bus2=G2000WL3500_N283799_sec_1.3 linecode=2/0_2/0 phases=1 length=200 units=ft
New line.G2000WL3500_N283799_sec_2 bus1=G2000WL3500_N283799_sec.3 bus2=G2000WL3500_N283799_sec_2.3 linecode=2/0_2/0 phases=1 length=200 units=ft
New line.G2000WL4100_N283765_sec_1 bus1=G2000WL4100_N283765_sec.2 bus2=G2000WL4100_N283765_sec_1.2 linecode=2/0_2/0 phases=1 length=200 units=ft
New line.G2000WL4100_N283765_sec_2 bus1=G2000WL4100_N283765_sec.2 bus2=G2000WL4100_N283765_sec_2.2 linecode=2/0_2/0 phases=1 length=200 units=ft
New line.G2000WL4100_N283765_sec_3 bus1=G2000WL4100_N283765_sec.2 bus2=G2000WL4100_N283765_sec_3.2 linecode=2/0_2/0 phases=1 length=200 units=ft
New line.G2000WL9300_N283779_sec_1 bus1=G2000WL9300_N283779_sec.2 bus2=G2000WL9300_N283779_sec_1.2 linecode=2/0_2/0 phases=1 length=150 units=ft
New line.G2000WL9300_N283779_sec_2 bus1=G2000WL9300_N283779_sec.2 bus2=G2000WL9300_N283779_sec_2.2 linecode=2/0_2/0 phases=1 length=200 units=ft
New line.G2000WM0100_N283809_sec_1 bus1=G2000WM0100_N283809_sec.3 bus2=G2000WM0100_N283809_sec_1.3 linecode=2/0_2/0 phases=1 length=200 units=ft
New line.G2000WM0100_N283809_sec_2 bus1=G2000WM0100_N283809_sec.3 bus2=G2000WM0100_N283809_sec_2.3 linecode=2/0_2/0 phases=1 length=200 units=ft
New line.G2000WM3200_N283819_sec_1 bus1=G2000WM3200_N283819_sec.3 bus2=G2000WM3200_N283819_sec_1.3 linecode=2/0_2/0 phases=1 length=200 units=ft
New line.G2000WM3200_N283819_sec_2 bus1=G2000WM3200_N283819_sec.3 bus2=G2000WM3200_N283819_sec_2.3 linecode=2/0_2/0 phases=1 length=200 units=ft
New line.G2000WM3200_N283819_sec_3 bus1=G2000WM3200_N283819_sec.3 bus2=G2000WM3200_N283819_sec_3.3 linecode=2/0_2/0 phases=1 length=200 units=ft
New line.G2000WM3200_N283819_sec_4 bus1=G2000WM3200_N283819_sec.3 bus2=G2000WM3200_N283819_sec_4.3 linecode=2/0_2/0 phases=1 length=200 units=ft
New line.G2000WM6400_N283824_sec_1 bus1=G2000WM6400_N283824_sec.3 bus2=G2000WM6400_N283824_sec_1.3 linecode=2/0_2/0 phases=1 length=200 units=ft
New line.G2000WM6400_N283824_sec_2 bus1=G2000WM6400_N283824_sec.3 bus2=G2000WM6400_N283824_sec_2.3 linecode=2/0_2/0 phases=1 length=200 units=ft
New line.G2000WM6400_N283824_sec_3 bus1=G2000WM6400_N283824_sec.3 bus2=G2000WM6400_N283824_sec_3.3 linecode=2/0_2/0 phases=1 length=200 units=ft
New line.G2000WM6400_N283824_sec_4 bus1=G2000WM6400_N283824_sec.3 bus2=G2000WM6400_N283824_sec_4.3 linecode=2/0_2/0 phases=1 length=200 units=ft
New line.G2000WM6400_N283824_sec_5 bus1=G2000WM6400_N283824_sec.3 bus2=G2000WM6400_N283824_sec_5.3 linecode=2/0_2/0 phases=1 length=200 units=ft
New line.G2000WN0100_N283840_sec_1 bus1=G2000WN0100_N283840_sec.2 bus2=G2000WN0100_N283840_sec_1.2 linecode=2/0_2/0 phases=1 length=200 units=ft
New line.G2000WN0100_N283840_sec_2 bus1=G2000WN0100_N283840_sec.2 bus2=G2000WN0100_N283840_sec_2.2 linecode=2/0_2/0 phases=1 length=200 units=ft
New line.G2000WN3300_N283848_sec_1 bus1=G2000WN3300_N283848_sec.2 bus2=G2000WN3300_N283848_sec_1.2 linecode=2/0_2/0 phases=1 length=200 units=ft
New line.G2000WN3300_N283848_sec_2 bus1=G2000WN3300_N283848_sec.2 bus2=G2000WN3300_N283848_sec_2.2 linecode=2/0_2/0 phases=1 length=200 units=ft
New line.G2000WN3300_N283848_sec_3 bus1=G2000WN3300_N283848_sec.2 bus2=G2000WN3300_N283848_sec_3.2 linecode=2/0_2/0 phases=1 length=200 units=ft
New line.G2000WO2300_N283902_sec_1 bus1=G2000WO2300_N283902_sec.3 bus2=G2000WO2300_N283902_sec_1.3 linecode=Sweetbriar phases=1 length=200 units=ft