Clear
New circuit.NEV
~ Basekv=138 pu=1.05

redirect linegeometry.dss
redirect linecodes.dss
redirect spectra.dss
redirect substation.dss
redirect lines.dss
redirect grounds.dss
redirect loads.dss
redirect capacitors.dss

Set voltagebases=[138 13.2 .48 .208]
calcvoltagebases

