//--------------------------------------------------------------------------------------------------//
//Curvas de carga

New Loadshape.1 npts=24 interval=1 mult=(0.18000001 0.19000000 0.23999999 0.33000001 0.38999999 0.41000000 0.64999998 1.23000002 1.88999999 1.88999999 1.96000004 1.98000002 1.45000005 1.62000000 1.88999999 1.79999995 1.78999996 1.19000006 0.80000001 0.66000003 0.51999998 0.40000001 0.28000000 0.23000000)    ! código=Industrial 5001-10000 kWh
!mult=(File=LoadShape1.csv) 

New Loadshape.2 npts=24 interval=1 mult=(0.69000000 0.50999999 0.44999999 0.41999999 0.55000001 0.85000002 1.01999998 0.80000001 0.89999998 0.91000003 1.02999997 1.03999996 1.11000001 0.98000002 0.94000000 0.94000000 1.02999997 1.26999998 1.51999998 1.59000003 1.75999999 1.50999999 1.29999995 0.89999998)    ! código=Residencial 101-220 kWh
!mult=(File=LoadShape2.csv) 

//--------------------------------------------------------------------------------------------------//