//--------------------------------------------------------------------------------------------------//
// Switch

New Line.671692    Phases=3 Bus1=671   Bus2=692  Switch=y  

//--------------------------------------------------------------------------------------------------//