//------------------------------------------------------------------------------------------------------------------------------//
// Dados do transformador.

New Transformer.XFM1  phases=3   windings=2  xhl=2
~ wdg=1 bus=633       conn=wye kV=4.16    kva=500    %r=.55    
~ wdg=2 bus=634       conn=wye kV=0.480    kva=500    %r=.55  


//------------------------------------------------------------------------------------------------------------------------------//