
New Line.HVMV_Sub_connector  bus1=_HVMV_Sub_LSB       bus2=HVMV_Sub_48332      length=0.001       units=km r1=0.001                                        r0=0.001 x1=0.01      x0=0.01      c1=0     c0=0           
New Line.LN5502549-1         bus1=M1009763.2          bus2=L2673322.2          length=0.032175613 units=km geometry=1PH-x4_ACSRx4_ACSR                
New Line.LN6259988-1         bus1=M1069148.3          bus2=L2673309.3          length=0.10723408  units=km geometry=1PH-xx4_ACSR4_ACSR                
New Line.LN6077796-1         bus1=M1069588.2          bus2=L2804270.2          length=0.011446341 units=km geometry=1PH-x4_ACSRx4_ACSR                
New Line.LN5835135-2         bus1=M3036164.2          bus2=L2935553.2          length=0.047751634 units=km geometry=1PH-x4_ACSRx4_ACSR                
New Line.LN5896826-1         bus1=M1209749.2          bus2=L2748840.2          length=0.20318135  units=km geometry=1PH-x2_ACSRx2_ACSR                
New Line.LN5714038-1         bus1=M1108264.2          bus2=M1108263.2          length=0.099994301 units=km geometry=1PH-x4_ACSRx4_WPAL                
New Line.LN5653457-1         bus1=L3085398            bus2=M1026891            length=0.085708298 units=km geometry=3PH_H-4_ACSR4_ACSR4_ACSR4_ACSR          
New Line.LN5835173-1         bus1=L3216367            bus2=M1069468            length=0.04134682  units=km geometry=3PH_H-2/0_ACSR2/0_ACSR2/0_ACSR2_ACSR    
New Line.LN6321415-1         bus1=M1142800.2          bus2=M1142799.2          length=0.093302869 units=km geometry=1PH-x2_ACSRx2_ACSR                
New Line.LN5565092-1         bus1=M1047592.3          bus2=P827512.3           length=0.003656151 units=km geometry=1PH-xx4_ACSR4_ACSR                
New Line.LN6073648-1         bus1=M1047339.1          bus2=P895104.1           length=0.007739728 units=km geometry=1PH-4_WPALxx2_WPAL                
New Line.LN5774457-1         bus1=M1026915            bus2=M1026920            length=0.04084655  units=km geometry=3PH_H-4_ACSR2_ACSR2_ACSR4_WPAL          
New Line.LN5534966-3         bus1=N1138596.1          bus2=L3254207.1          length=0.024491351 units=km geometry=1PH-4_ACSRxx4_ACSR                
New Line.LN5859996-1         bus1=M1069464.2          bus2=P873787.2           length=0.006235546 units=km geometry=1PH-x2_ACSRx2_ACSR                
New Line.LN6138610-2         bus1=N1144665            bus2=M1047515            length=0.02738852  units=km geometry=3PH_H-4_ACSR4_ACSR4_ACSR4_WPAL          
New Line.LN6258435-3         bus1=N1137002.1          bus2=M1047707.1          length=0.092480965 units=km geometry=1PH-2_ACSRxx2_ACSR                
New Line.LN5804790-1         bus1=L2729406.3          bus2=L2897768.3          length=0.19477261  units=km geometry=1PH-xx4_ACSR4_ACSR                
New Line.LN6900591-14        bus1=L3649301.1          bus2=L3649302.1          length=0.063060497 units=km geometry=1PH-2_ACSRxx2_ACSR                
New Line.LN6409873-1         bus1=L2970842.2          bus2=M1089113.2          length=0.071877523 units=km geometry=1PH-x4_ACSRx4_ACSR                
New Line.LN6014135-1         bus1=M1047312.1          bus2=P893163.1           length=0.004144648 units=km geometry=1PH-4_WPALxx4_ACSR                
New Line.LN6077784-1         bus1=L2822871            bus2=M1026872            length=0.060144485 units=km geometry=3PH_H-2/0_ACSR2/0_ACSR2/0_ACSR2_ACSR    
New Line.LN5744338-1         bus1=M1026312.2          bus2=L2973163.2          length=0.053487035 units=km geometry=1PH-x4_ACSRx4_WPAL                
New Line.LN6991381-4         bus1=L3728038.1          bus2=L3728039.1          length=0.079108815 units=km geometry=1PH-2_ACSRxx2_ACSR                
New Line.LN5774480-1         bus1=M1069567.2          bus2=M1069582.2          length=0.1529554   units=km geometry=1PH-x4_ACSRx4_ACSR                
New Line.LN5986938-3         bus1=N1140830.1          bus2=L3216351.1          length=0.00873965  units=km geometry=1PH-4_ACSRxx4_ACSR                
New Line.LN5894230-1         bus1=L2952007.3          bus2=L2861158.3          length=0.12654648  units=km geometry=1PH-xx4_ACSR4_ACSR                
New Line.LN5683858-3         bus1=N1140827            bus2=M1026726            length=0.017268995 units=km geometry=3PH_H-4_ACSR4_ACSR4_ACSR4_ACSR          
New Line.LN5920279-5         bus1=L2730106            bus2=N1142099            length=0.022369032 units=km geometry=3PH_H-397_ACSR397_ACSR397_ACSR2/0_ACSR  
New Line.LN6439600-1         bus1=M1026658.1          bus2=L3172805.1          length=0.10668036  units=km geometry=1PH-2_ACSRxx2_ACSR                
New Line.LN5589097-1         bus1=P895112.1           bus2=L3048962.1          length=0.025604159 units=km geometry=1PH-2_ACSRxx4_ACSR                
New Line.LN5651975-1         bus1=L2991914            bus2=M1047503            length=0.035650057 units=km geometry=3PH_H-4_ACSR4_ACSR4_ACSR4_ACSR          
New Line.LN5865236-1         bus1=M1047751.1          bus2=L2973154.1          length=0.00930772  units=km geometry=1PH-4_ACSRxx4_ACSR                
New Line.LN5593232-1         bus1=L3010565.3          bus2=L2897775.3          length=0.14082596  units=km geometry=1PH-xx2_ACSR2_ACSR                
New Line.LN5740283-1         bus1=M1125955.3          bus2=M1125957.3          length=0.00682612  units=km geometry=1PH-xx4_WPAL4_WPAL                
New Line.LN6106559-1         bus1=M1069640.2          bus2=L2804269.2          length=0.10114503  units=km geometry=1PH-x4_ACSRx4_ACSR                
New Line.LN5714056-3         bus1=M1026702            bus2=N1139551            length=0.12873466  units=km geometry=3PH_H-4_ACSR4_ACSR4_ACSR4_WPAL          
New Line.LN5985355-3         bus1=N1136355.2          bus2=L2783231.2          length=0.072454801 units=km geometry=1PH-x4_WPALx4_WPAL                
New Line.LN5531956-1         bus1=L2748143.1          bus2=L3251854.1          length=0.067056078 units=km geometry=1PH-2_ACSRxx2_ACSR                
New Line.LN5650048-1         bus1=M1069610.2          bus2=M1069600.2          length=0.060959705 units=km geometry=1PH-x2_ACSRx2_ACSR                
New Line.LN6290203-1         bus1=M1069424            bus2=L2935549            length=0.088596305 units=km geometry=3PH_H-2/0_ACSR2/0_ACSR2/0_ACSR2_ACSR    
New Line.LN6134414-1         bus1=P895089.3           bus2=L3235242.3          length=0.060507038 units=km geometry=1PH-xx2_ACSR2_ACSR                
New Line.LN6259998-2         bus1=M1026795.3          bus2=N1140522.3          length=0.013557509 units=km geometry=1PH-xx2_ACSR2_ACSR                
New Line.LN6078767-1         bus1=L3030199            bus2=M1125934            length=0.029294768 units=km geometry=3PH_H-397_ACSR397_ACSR397_ACSR2/0_ACSR  
New Line.LN6017300-1         bus1=M1069189.3          bus2=L2860487.3          length=0.086987129 units=km geometry=1PH-xx4_WPAL4_WPAL                
New Line.LN8979257-2         bus1=221-312488          bus2=M1089183            length=0.013516796 units=km linecode=3P_1/0_AXNJ_DB                          
New Line.LN81048109-1        bus1=M1108464.2          bus2=L3102286.2          length=0.10745557  units=km linecode=1P_1/0_AXNJ_DB                          
New Line.293471              bus1=F739845             bus2=293471              length=0.03048     units=km geometry=3PH_H-4_ACSR4_ACSR4_ACSR4_ACSR          
New Line.LN5534965-2         bus1=P827499.1           bus2=N1139254.1          length=0.006376053 units=km geometry=1PH-4_ACSRxx4_ACSR                
New Line.LN5655683-1         bus1=M1026657.1          bus2=M1026656.1          length=0.006010467 units=km geometry=1PH-4_ACSRxx4_ACSR                
New Line.LN5686247-1         bus1=M1108299.2          bus2=M1108300.2          length=0.006796901 units=km geometry=1PH-x4_ACSRx4_ACSR                
New Line.LN6048642-1         bus1=L3198355.2          bus2=L2805037.2          length=0.11081571  units=km geometry=1PH-x4_WPALx4_WPAL                
New Line.LN5928544-3         bus1=N1137994.3          bus2=M1069484.3          length=0.05637094  units=km geometry=1PH-xx4_WPAL4_ACSR                
New Line.LN6108172-1         bus1=L2860504.1          bus2=L2860493.1          length=0.20838125  units=km geometry=1PH-2_ACSRxx2_ACSR                
New Line.LN5532754-1         bus1=M1026783            bus2=M1026780            length=0.017916335 units=km geometry=3PH_H-4_ACSR4_ACSR4_ACSR4_WPAL          
New Line.LN5591834-1         bus1=P895111.3           bus2=L2895496.3          length=0.069855343 units=km geometry=1PH-xx2_ACSR2_ACSR                
New Line.LN6347196-2         bus1=N1140819            bus2=M1026700            length=0.026930613 units=km geometry=3PH_H-4_ACSR4_ACSR4_ACSR4_WPAL          
New Line.LN5532741-1         bus1=M1089173.3          bus2=L2935551.3          length=0.060857652 units=km geometry=1PH-xx4_WPAL4_WPAL                
New Line.LN5804803-1         bus1=M1026344.1          bus2=M1026364.1          length=0.29464985  units=km geometry=1PH-2_ACSRxx2_ACSR                
New Line.LN6169248-1         bus1=L2879070            bus2=L3216345            length=0.089300859 units=km geometry=3PH_H-2/0_ACSR2/0_ACSR2/0_ACSR2_ACSR    
New Line.LN5532786-2         bus1=M1069428.2          bus2=N1139257.2          length=0.016476581 units=km geometry=1PH-x2_ACSRx1/0_TPX               
New Line.LN5744339-1         bus1=L2991919.1          bus2=M1026361.1          length=0.085291161 units=km geometry=1PH-4_WPALxx4_ACSR                
New Line.LN5531255-3         bus1=N1147857.1          bus2=M1009742.1          length=0.054752983 units=km geometry=1PH-4_ACSRxx4_ACSR                
New Line.LN5926308-2         bus1=Q14412              bus2=M1047325            length=0.033944982 units=km geometry=3PH_H-4_ACSR4_ACSR4_ACSR4_ACSR          
New Line.LN5683856-3         bus1=N1139263.1          bus2=L3048227.1          length=0.025986896 units=km geometry=1PH-4_ACSRxx4_ACSR                
New Line.LN6171502-1         bus1=P827506.1           bus2=M1069469.1          length=0.007050168 units=km geometry=1PH-4_ACSRxx4_ACSR                
New Line.LN5593228-1         bus1=M1027019.2          bus2=L2785522.2          length=0.060390635 units=km geometry=1PH-x2_ACSRx2_ACSR                

New Line.CAP_1A              bus1=L2823592.1          bus2=L2823592_CAP.1      length=0.01        units=km r1=0.01        r0=0.01  x1=0.01      x0=0.01      c1=0     c0=0           
New Line.CAP_1B              bus1=L2823592.2          bus2=L2823592_CAP.2      length=0.01        units=km r1=0.01        r0=0.01  x1=0.01      x0=0.01      c1=0     c0=0           
New Line.CAP_1C              bus1=L2823592.3          bus2=L2823592_CAP.3      length=0.01        units=km r1=0.01        r0=0.01  x1=0.01      x0=0.01      c1=0     c0=0           

New Line.LN5513564-2         bus1=L2823592_CAP        bus2=R20185              length=0.0451087   units=km geometry=3PH_H-397_ACSR397_ACSR397_ACSR2/0_ACSR  

New Line.LN6380800-1         bus1=L3216338.2          bus2=L2973146.2          length=0.058581136 units=km geometry=1PH-x2_ACSRx2_ACSR                
New Line.LN6199525-2         bus1=M3037452.1          bus2=L2973164.1          length=0.071451786 units=km geometry=1PH-4_ACSRxx4_ACSR                
New Line.LN5772710-2         bus1=L3120376.1          bus2=M1026925.1          length=0.089332548 units=km geometry=1PH-4_ACSRxx4_WPAL                
New Line.LN8961760-1         bus1=M1047612.3          bus2=P828360.3           length=0.005371644 units=km linecode=1P_1/0_AXNJ_DB                          
New Line.LN6047556-1         bus1=M1089195.3          bus2=L3141393.3          length=0.11273397  units=km geometry=1PH-xx2_ACSR2_ACSR                
New Line.LN6138603-1         bus1=M1026946.2          bus2=M1026940.2          length=0.12856984  units=km geometry=1PH-x4_ACSRx4_ACSR                
New Line.LN6108139-1         bus1=M1047471.2          bus2=L3216349.2          length=0.0183997   units=km geometry=1PH-x2_ACSRx2_ACSR                
New Line.LN6388581-2         bus1=M1047401.1          bus2=L2748132.1          length=0.056056234 units=km geometry=1PH-4_ACSRxx4_ACSR                
New Line.LN5774460-1         bus1=L3122820.1          bus2=L3141398.1          length=0.059408725 units=km geometry=1PH-2_ACSRxx2_ACSR                
New Line.LN5624387-1         bus1=M1108360.3          bus2=L3048968.3          length=0.05497669  units=km geometry=1PH-xx4_ACSR4_ACSR                
New Line.LN6137087-1         bus1=L2801950.3          bus2=M1069224.3          length=0.032899004 units=km geometry=1PH-xx4_ACSR1/0_TPX               
New Line.LN6077809-1         bus1=L2766746.3          bus2=M1027073.3          length=0.11047955  units=km geometry=1PH-xx2_ACSR2_ACSR                
New Line.LN6440079-1         bus1=L2895496.3          bus2=M1142873.3          length=0.050561264 units=km geometry=1PH-xx2_ACSR2_ACSR                
New Line.LN5804794-1         bus1=M1069181.1          bus2=L2973151.1          length=0.075432644 units=km geometry=1PH-4_ACSRxx4_ACSR                
New Line.LN5654484-1         bus1=L3179682.3          bus2=L2786274.3          length=0.027728997 units=km geometry=1PH-xx4_ACSR4_ACSR                
New Line.LN5774465-1         bus1=L3066816.1          bus2=M1026667.1          length=0.12146238  units=km geometry=1PH-2_ACSRxx2_ACSR                
New Line.LN5473349-1         bus1=M1108529            bus2=M1108532            length=0.024808926 units=km geometry=3PH_H-397_ACSR397_ACSR397_ACSR2/0_ACSR  
New Line.LN6169253-1         bus1=L2766723.1          bus2=L3122822.1          length=0.057158143 units=km geometry=1PH-4_ACSRxx4_ACSR                
New Line.LN6350536-1         bus1=L2673312.1          bus2=L3235247.1          length=0.16625327  units=km geometry=1PH-2_ACSRxx2_ACSR                
New Line.LN6048523-1         bus1=M1166391.3          bus2=L3254873.3          length=0.1061747   units=km geometry=1PH-xx4_WPAL4_ACSR                
New Line.LN5594152-1         bus1=L2861157.3          bus2=P901951.3           length=0.12134881  units=km geometry=1PH-xx2_ACSR2_ACSR                
New Line.LN5865248-1         bus1=M1047346            bus2=M1047345            length=0.043145742 units=km geometry=3PH_H-4_WPAL4_WPAL4_WPAL4_ACSR          
New Line.LN6046143-1         bus1=L2989596.2          bus2=L2822873.2          length=0.088615313 units=km geometry=1PH-x4_WPALx4_ACSR                
New Line.LN5803287-1         bus1=M1108328.3          bus2=L2875754.3          length=0.021267162 units=km geometry=1PH-xx2_ACSR2_ACSR                
New Line.LN5589094-1         bus1=L2786204.3          bus2=M1209819.3          length=0.072043559 units=km geometry=1PH-xx4_ACSR4_ACSR                
New Line.LN5954983-1         bus1=P901972.1           bus2=M1009726.1          length=0.090083252 units=km geometry=1PH-4_WPALxx4_WPAL                
New Line.LN5924696-2         bus1=M1047702.1          bus2=N1137001.1          length=0.042663027 units=km geometry=1PH-2_ACSRxx2_ACSR                
New Line.LN6506311-4         bus1=L2767340            bus2=M3037449            length=0.001937451 units=km geometry=3PH_H-4_WPAL4_WPAL4_WPAL4_WPAL          
New Line.LN5653493-1         bus1=M1047457.2          bus2=L2710546.2          length=0.040119548 units=km geometry=1PH-x2_ACSRx2_ACSR                
New Line.LN5684836-1         bus1=L2674027            bus2=L2692633            length=0.067881777 units=km geometry=3PH_H-397_ACSR397_ACSR397_ACSR2/0_ACSR  
New Line.LN5715016-3         bus1=N1142108.1          bus2=L2674051.1          length=0.073678618 units=km geometry=1PH-2_ACSRxx2_ACSR                
New Line.LN6138614-1         bus1=M1069135            bus2=R18242              length=0.070990263 units=km geometry=3PH_H-4_WPAL4_WPAL4_WPAL4_WPAL          
New Line.LN6077781-2         bus1=M1047534            bus2=N1136663            length=0.11473566  units=km geometry=3PH_H-2/0_ACSR2/0_ACSR2/0_ACSR2_ACSR    
New Line.LN5675121-1         bus1=M1108508.3          bus2=L3097861.3          length=0.091439774 units=km geometry=1PH-xx2_ACSR2_ACSR                
New Line.LN5773046-1         bus1=M1069560.2          bus2=M1069567.2          length=0.081428218 units=km geometry=1PH-x4_ACSRx4_ACSR                
New Line.LN6380809-2         bus1=L2973153            bus2=N1136998            length=0.010528536 units=km geometry=3PH_H-4_WPAL4_WPAL4_WPAL4_WPAL          
New Line.LN6018326-1         bus1=L2898515.3          bus2=M1166387.3          length=0.059605868 units=km geometry=1PH-xx4_ACSR4_ACSR                
New Line.LN5472356-1         bus1=M1047442.2          bus2=L3235250.2          length=0.064500287 units=km geometry=1PH-x4_WPALx4_WPAL                
New Line.LN6139641-1         bus1=M1142871            bus2=M1142874            length=0.038152689 units=km geometry=3PH_H-397_ACSR397_ACSR397_ACSR2/0_ACSR  
New Line.LN6018341-1         bus1=L2955081            bus2=M1108315            length=0.094684869 units=km geometry=3PH_H-397_ACSR397_ACSR397_ACSR2/0_ACSR  
New Line.LN6017302-1         bus1=L2973162            bus2=M1026333            length=0.053150629 units=km geometry=3PH_H-4_WPAL4_WPAL4_WPAL4_ACSR          
New Line.LN6199505-1         bus1=M1009832.2          bus2=L2860479.2          length=0.036046786 units=km geometry=1PH-x4_ACSRx4_ACSR                
New Line.LN5682327-1         bus1=M1026854.1          bus2=P901894.1           length=0.005924616 units=km geometry=1PH-4_ACSRxx4_ACSR                
New Line.LN6290243-1         bus1=M1026485.2          bus2=M1026492.2          length=0.065907247 units=km geometry=1PH-x2_ACSRx2_ACSR                
New Line.X8223_48332_sw      bus1=D6413567-3_INT      bus2=E182724             switch=y           R1=1     1                                               1        1            Length=0.001   
New Line.LN6413567-3         bus1=N1139541            bus2=D6413567-3_INT      length=0.014966786 units=km geometry=3PH_H-4_ACSR4_ACSR4_ACSR4_WPAL          
New Line.LN5591731-3         bus1=M4122658            bus2=L2933135            length=0.001669181 units=km geometry=3PH_H-397_ACSR397_ACSR397_ACSR2/0_ACSR  
New Line.LN5653470-1         bus1=M1026702            bus2=L2729414            length=0.049898074 units=km geometry=3PH_H-2_ACSR2_ACSR2_ACSR2_ACSR          
New Line.LN6017316-1         bus1=L2729430.2          bus2=L2766742.2          length=0.10864125  units=km geometry=1PH-x4_ACSRx4_ACSR                
New Line.LN5926299-1         bus1=M1026972.2          bus2=L2860483.2          length=0.060677138 units=km geometry=1PH-x2_ACSRx2_ACSR                
New Line.LN5683831-1         bus1=L2860490            bus2=L3104134            length=0.063357888 units=km geometry=3PH_H-4_ACSR4_ACSR4_ACSR4_ACSR          
New Line.LN6352700-1         bus1=M1089144.1          bus2=P827522.1           length=0.002591741 units=km geometry=1PH-2_ACSRxx2_ACSR                
New Line.LN6047570-1         bus1=M1089118.1          bus2=L3048208.1          length=0.045297024 units=km geometry=1PH-4_ACSRxx4_WPAL                
New Line.LN5624342-1         bus1=M1108505            bus2=L2955047            length=0.05456149  units=km geometry=3PH_H-397_ACSR397_ACSR397_ACSR2/0_ACSR  
New Line.LN6259992-1         bus1=M1089148.1          bus2=L2766721.1          length=0.048405189 units=km geometry=1PH-4_ACSRxx1/0_TPX               
New Line.LN5841919-1         bus1=M1026745.2          bus2=L3029183.2          length=0.091016527 units=km geometry=1PH-x2_ACSRx2_ACSR                
New Line.LN6380811-1         bus1=L2710512.2          bus2=M1047828.2          length=0.14521686  units=km geometry=1PH-x4_ACSRx4_ACSR                
New Line.LN5683832-1         bus1=M1047342.1          bus2=L3197645.1          length=0.073698058 units=km geometry=1PH-2_ACSRxx2_ACSR                
New Line.LN6077778-1         bus1=M1069192.1          bus2=L3235253.1          length=0.081541574 units=km geometry=1PH-2_ACSRxx2_ACSR                
New Line.LN5561442-2         bus1=L3214071            bus2=M1125952            length=0.053927476 units=km geometry=3PH_H-397_ACSR397_ACSR397_ACSR2/0_ACSR  
New Line.LN6259983-1         bus1=M1027101.2          bus2=L2860480.2          length=0.16390608  units=km geometry=1PH-x2_ACSRx2_ACSR                
New Line.LN5865244-1         bus1=L2710517.1          bus2=M1026646.1          length=0.048809326 units=km geometry=1PH-4_ACSRxx4_ACSR                
New Line.LN6350555-1         bus1=M1069662.2          bus2=L2935547.2          length=0.061176171 units=km geometry=1PH-x2_ACSRx2_ACSR                
New Line.LN5714039-1         bus1=M1026931.1          bus2=L3216336.1          length=0.049186375 units=km geometry=1PH-4_ACSRxx4_ACSR                
New Line.LN5889821-1         bus1=L3142049            bus2=M1108493            length=0.084670171 units=km geometry=3PH_H-397_ACSR397_ACSR397_ACSR2/0_ACSR  
New Line.LN5804791-1         bus1=M1069169            bus2=L3010556            length=0.073355839 units=km geometry=3PH_H-4_ACSR4_ACSR4_ACSR4_WPAL          
New Line.LN5653486-1         bus1=L2991933.3          bus2=L3122837.3          length=0.083273252 units=km geometry=1PH-xx4_ACSR4_ACSR                
New Line.LN5926286-1         bus1=L3216336.1          bus2=L2691936.1          length=0.066949476 units=km geometry=1PH-4_ACSRxx4_ACSR                
New Line.LN6318859-1         bus1=L2897772.1          bus2=L3101814.1          length=0.056445275 units=km geometry=1PH-4_ACSRxx4_ACSR                
New Line.LN5926316-1         bus1=L2766732.2          bus2=M1026485.2          length=0.013733074 units=km geometry=1PH-x2_ACSRx2_ACSR                
New Line.LN5591703-1         bus1=L2804269.2          bus2=L2989564.2          length=0.062072526 units=km geometry=1PH-x4_ACSRx4_ACSR                
New Line.LN5531333-1         bus1=M1126016.1          bus2=L3120534.1          length=0.035538915 units=km geometry=1PH-4_ACSRxx4_ACSR                
New Line.LN6047581-1         bus1=M1026330.2          bus2=L2766726.2          length=0.030088055 units=km geometry=1PH-x4_WPALx4_WPAL                
New Line.LN6349077-1         bus1=P901912.2           bus2=L3195365.2          length=0.037424079 units=km geometry=1PH-x2_ACSRx2_ACSR                
New Line.LN6350574-1         bus1=M1108381            bus2=L3254237            length=0.075954944 units=km geometry=3PH_H-4_ACSR2_ACSR2_ACSR4_ACSR          
New Line.LN6320343-1         bus1=L2804262.1          bus2=L2841639.1          length=0.074677313 units=km geometry=1PH-4_ACSRxx4_ACSR                
New Line.LN81048100-5        bus1=N1230123.2          bus2=L2708744.2          length=0.055803273 units=km linecode=1P_1/0_AXNJ_DB                          
New Line.LN6348946-1         bus1=M1069519.2          bus2=P901927.2           length=0.008238711 units=km geometry=1PH-x2_ACSRx2_ACSR                
New Line.LN5744351-1         bus1=L2897790.3          bus2=L2935566.3          length=0.070433661 units=km geometry=1PH-xx2_ACSR2_ACSR                
New Line.LN5472342-1         bus1=M1026931.1          bus2=L3216337.1          length=0.056331403 units=km geometry=1PH-2_ACSRxx2_ACSR                
New Line.LN5621849-1         bus1=P901931.3           bus2=M1069548.3          length=0.004854897 units=km geometry=1PH-xx2_ACSR2_ACSR                
New Line.LN6379375-1         bus1=M1010013.1          bus2=L3120503.1          length=0.0548288   units=km geometry=1PH-2_ACSRxx2_ACSR                
New Line.LN6028890-1         bus1=M1089145            bus2=L3215385            length=0.035965867 units=km geometry=3PH_H-2_ACSR2_ACSR2_ACSR2_ACSR          
New Line.LN6380822-1         bus1=M1026854            bus2=M1026852            length=0.13122769  units=km geometry=3PH_H-2/0_ACSR2/0_ACSR2/0_ACSR2_ACSR    
New Line.LN5835131-1         bus1=L2935549            bus2=M1069420            length=0.096022455 units=km geometry=3PH_H-2/0_ACSR2/0_ACSR2/0_ACSR2_ACSR    
New Line.LN5803262-7         bus1=L3157708.3          bus2=N1137991.3          length=0.014131659 units=km geometry=1PH-xx4_ACSR4_ACSR                
New Line.LN81048089-1        bus1=M1108413.1          bus2=M1108460.1          length=0.14609518  units=km linecode=1P_1/0_AXNJ_DB                          
New Line.LN6201699-1         bus1=P827532.1           bus2=M1047326.1          length=0.007292708 units=km geometry=1PH-2_ACSRxx2_ACSR                
New Line.LN5746548-1         bus1=E182732             bus2=M1026760            length=0.009180368 units=km geometry=3PH_H-4_ACSR4_ACSR4_ACSR4_ACSR          
New Line.LN5835174-1         bus1=L3048205.3          bus2=M1108361.3          length=0.19593419  units=km geometry=1PH-xx4_ACSR4_WPAL                
New Line.LN6505947-4         bus1=M3036169.1          bus2=L2673317.1          length=0.002598078 units=km geometry=1PH-4_ACSRxx4_WPAL                
New Line.LN5683833-1         bus1=L3178981.2          bus2=M1047368.2          length=0.21679755  units=km geometry=1PH-x4_ACSRx4_ACSR                
New Line.LN5561439-3         bus1=M1069519            bus2=N1136354            length=0.15125949  units=km geometry=3PH_H-397_ACSR397_ACSR397_ACSR2/0_ACSR  
New Line.LN6109190-1         bus1=L2879794.1          bus2=M1142811.1          length=0.033755992 units=km geometry=1PH-4_ACSRxx4_ACSR                
New Line.LN6258435-2         bus1=M1047702.1          bus2=N1137002.1          length=0.018939349 units=km geometry=1PH-2_ACSRxx2_ACSR                
New Line.LN5804819-1         bus1=M1069565.2          bus2=L2785536.2          length=0.1850108   units=km geometry=1PH-x4_ACSRx4_ACSR                
New Line.LN5593215-1         bus1=L3104114.2          bus2=M1009824.2          length=0.055545084 units=km geometry=1PH-x4_WPALx4_WPAL                
New Line.LN5833717-1         bus1=L2745848            bus2=L2673308            length=0.057554467 units=km geometry=3PH_H-2/0_ACSR2/0_ACSR2/0_ACSR2_ACSR    
New Line.LN6199557-1         bus1=L2673308            bus2=L2991939            length=0.11260967  units=km geometry=3PH_H-2/0_ACSR2/0_ACSR2/0_ACSR2_ACSR    
New Line.LN5744332-1         bus1=L2916606.3          bus2=L2822864.3          length=0.061698468 units=km geometry=1PH-xx4_ACSR4_ACSR                
New Line.LN5558790-1         bus1=M1142851            bus2=196-31070           length=0.01385607  units=km geometry=3PH_H-397_ACSR397_ACSR397_ACSR2/0_ACSR  
New Line.LN6078692-1         bus1=M1209822.3          bus2=M1209823.3          length=0.056983029 units=km geometry=1PH-xx4_ACSR4_ACSR                
New Line.LN5956482-1         bus1=M1069550.2          bus2=M1069551.2          length=0.004148354 units=km geometry=1PH-x4_WPALx4_WPAL                
New Line.LN5593225-1         bus1=L2860483.2          bus2=L3141397.2          length=0.076050673 units=km geometry=1PH-x2_ACSRx2_ACSR                
New Line.LN6900591-26        bus1=L3649299.1          bus2=M3772794.1          length=0.003878988 units=km geometry=1PH-2_ACSRxx2_ACSR                
New Line.LN5952393-1         bus1=P895106.2           bus2=L3048887.2          length=0.040161258 units=km geometry=1PH-x4_ACSRx4_ACSR                
New Line.LN6350531-1         bus1=M1047824.2          bus2=M1047834.2          length=0.41574814  units=km geometry=1PH-x4_ACSRx4_ACSR                
New Line.LN5965099-10        bus1=M1069350            bus2=N1144668            length=0.026748079 units=km geometry=3PH_H-2/0_ACSR2/0_ACSR2/0_ACSR2_ACSR    
New Line.LN6047568-1         bus1=L2879072.2          bus2=M1047441.2          length=0.2303486   units=km geometry=1PH-x4_WPALx4_ACSR                
New Line.LN5926292-1         bus1=M1108274.2          bus2=M1108269.2          length=0.061288054 units=km geometry=1PH-x2_ACSRx2_ACSR                
New Line.LN6380806-1         bus1=L3235244.1          bus2=M1069398.1          length=0.062895843 units=km geometry=1PH-4_ACSRxx4_ACSR                
New Line.LN6341781-3         bus1=N1147862.1          bus2=L2685805.1          length=0.089366154 units=km geometry=1PH-2_ACSRxx2_ACSR                
New Line.LN8979367-1         bus1=M1069247.1          bus2=M1069248.1          length=0.12279504  units=km linecode=1P_1/0_AXNJ_DB                          
New Line.LN6018340-1         bus1=L2786273.2          bus2=M1108278.2          length=0.10799408  units=km geometry=1PH-x4_ACSRx4_ACSR                
New Line.LN6380847-1         bus1=L3254238            bus2=M1047303            length=0.099313729 units=km geometry=3PH_H-4_ACSR4_ACSR4_ACSR4_ACSR          
New Line.LN8961797-1         bus1=M1047633.3          bus2=L2897554.3          length=0.17983472  units=km linecode=1P_1/0_AXNJ_DB                          
New Line.LN6077797-1         bus1=M1069627.2          bus2=L2897791.2          length=0.13855367  units=km geometry=1PH-x4_ACSRx4_ACSR                
New Line.LN6077773-1         bus1=M1089097.2          bus2=M1108270.2          length=0.083122982 units=km geometry=1PH-x4_ACSRx4_WPAL                
New Line.LN5837496-4         bus1=N1142101.1          bus2=L2936214.1          length=0.036947217 units=km geometry=1PH-2_ACSRxx2_ACSR                
New Line.LN5623392-1         bus1=L3066810.3          bus2=L2897769.3          length=0.12963818  units=km geometry=1PH-xx4_ACSR4_ACSR                
New Line.LN5624380-1         bus1=M1209758.2          bus2=M1209753.2          length=0.12109104  units=km geometry=1PH-x2_ACSRx2_ACSR                
New Line.LN6422809-2         bus1=M1047528            bus2=L2858166            length=0.004833257 units=km geometry=3PH_H-2/0_ACSR2/0_ACSR2/0_ACSR2_ACSR    