New Line.genleads Bus1=bg bus2=bg2 length=.010


!....New "Generator.windgen1" bus1=Bg2 kv=0.48 kW=-1200 conn=delta kVA=1500.000 H=6 duty=Wind2400 model=6 pf=1.000 Xdp=0.192 UserModel=IndMach012a UserData=(rs=0.048 xs=0.075 rr=0.018 xr=0.12 xm=3.8 option=variableslip)
New "IndMach012.windgen1" bus1=Bg2 kW=1200 conn=delta kVA=1500.000 H=6 duty=Wind2400 purs=0.048 puxs=0.075 purr=0.018 puxr=0.12 puxm=3.8 slip=0.02 SlipOption=variableslip kv=0.48