New "LoadShape.LoadShape1" npts=8760 interval=1.0 mult=(File=LoadShape1.csv)

